acdcpf/networks/case33h_ieee_AC.py
"""Power flow data for 33 bus AC part
"""

import numpy as np

def case33_ieee_AC():
    """
    AC case 33 IEEE modified nodes.
    
    """
    ppc = {"version": '2'}

    ##-----  Power Flow Data  -----##
    ## system MVA base
    ppc["baseMVA"] = 100.0

    ## bus data
    # bus_i  type  Pd   Qd   Gs Bs area  Vm   Va baseKV zone  Vmax  Vmin
    ppc["bus"] = np.array([
        [1,  3, 0.00, 0.00, 0, 0, 1, 1.05, 0, 12.67, 1, 1.1, 0.9],
        [2,  1, 0.20, 0.12, 0, 0, 1, 1.00, 0, 12.67, 1, 1.1, 0.9],
        [3,  1, 0.18, 0.08, 0, 0, 1, 1.00, 0, 12.67, 1, 1.1, 0.9],
        [4,  1, 0.24, 0.06, 0, 0, 1, 1.00, 0, 12.67, 1, 1.1, 0.9],
        [5,  2, 0.14, 0.06, 0, 0, 1, 1.03, 0, 12.67, 1, 1.1, 0.9],
        [6,  1, 0.20, 0.10, 0, 0, 1, 1.00, 0, 12.67, 1, 1.1, 0.9],
        [7,  1, 0.20, 0.10, 0, 0, 1, 1.00, 0, 12.67, 1, 1.1, 0.9],
        [12, 1, 0.12, 0.07, 0, 0, 1, 1.00, 0, 12.67, 1, 1.1, 0.9],
        [13, 1, 0.06, 0.02, 0, 0, 1, 1.00, 0, 12.67, 1, 1.1, 0.9],
        [14, 1, 0.40, 0.20, 0, 0, 1, 1.00, 0, 12.67, 1, 1.1, 0.9],
        [15, 1, 0.26, 0.11, 0, 0, 1, 1.00, 0, 12.67, 1, 1.1, 0.9],
        [19, 1, 0.18, 0.08, 0, 0, 1, 1.00, 0, 12.67, 1, 1.1, 0.9],
        [20, 1, 0.18, 0.08, 0, 0, 1, 1.00, 0, 12.67, 1, 1.1, 0.9],
        [23, 1, 0.18, 0.10, 0, 0, 1, 1.00, 0, 12.67, 1, 1.1, 0.9],
        [24, 2, 0.12, 0.06, 0, 0, 1, 1.03, 0, 12.67, 1, 1.1, 0.9],
        [25, 1, 0.30, 0.10, 0, 0, 1, 1.00, 0, 12.67, 1, 1.1, 0.9],
        [29, 2, 0.09, 0.04, 0, 0, 1, 1.02, 0, 12.67, 1, 1.1, 0.9],
        [30, 1, 0.10, 0.06, 0, 0, 1, 1.00, 0, 12.67, 1, 1.1, 0.9],
        [31, 1, 0.17, 0.05, 0, 0, 1, 1.00, 0, 12.67, 1, 1.1, 0.9],
        [32, 1, 0.15, 0.07, 0, 0, 1, 1.00, 0, 12.67, 1, 1.1, 0.9],
        [33, 1, 0.24, 0.16, 0, 0, 1, 1.00, 0, 12.67, 1, 1.1, 0.9],
    ], dtype=np.float64)

    ## generator data
    # bus Pg,Qg, Qmax, Qmin, Vg,  mBase, status, Pmax,   Pmin
    ppc["gen"] = np.array([
        [1,  0.0, 0.0, 500,  -500, 1.05, 100, 1, 999, 0],
        [5,  0.5, 0.0, 0.25, 0.05, 1.03, 100, 1, 999, 0],
        [24, 0.5, 0.0, 0.25, 0.05, 1.03, 100, 1, 999, 0],
        [29, 0.5, 0.0, 0.25, 0.05, 1.02, 100, 1, 999, 0],
    ], dtype=np.float64)

    ## branch data
    # fbus, tbus,   r,      x,      b,    rateA, rateB, rateC, ratio, angle, status
    ppc["branch"] = np.array([
        [1,  2,  0.058, 0.029, 0.00, 100, 100, 100, 0, 0, 1],
        [2,  3,  0.308, 0.157, 0.00, 100, 100, 100, 0, 0, 1],
        [3,  4,  0.228, 0.116, 0.00, 100, 100, 100, 0, 0, 1],
        [4,  5,  0.238, 0.121, 0.00, 100, 100, 100, 0, 0, 1],
        [5,  6,  0.511, 0.441, 0.00, 100, 100, 100, 0, 0, 1],
        [6,  7,  0.117, 0.386, 0.00, 100, 100, 100, 0, 0, 1],
        [12, 13, 0.916, 0.721, 0.00, 100, 100, 100, 0, 0, 1],
        [13, 14, 0.338, 0.445, 0.00, 100, 100, 100, 0, 0, 1],
        [14, 15, 0.369, 0.328, 0.00, 100, 100, 100, 0, 0, 1],
        [2,  19, 0.102, 0.098, 0.00, 100, 100, 100, 0, 0, 1],
        [19, 20, 0.939, 0.846, 0.00, 100, 100, 100, 0, 0, 1],
        [3,  23, 0.282, 0.192, 0.00, 100, 100, 100, 0, 0, 1],
        [23, 24, 0.560, 0.442, 0.00, 100, 100, 100, 0, 0, 1],
        [24, 25, 0.559, 0.437, 0.00, 100, 100, 100, 0, 0, 1],
        [25, 29, 0.312, 0.312, 0.00, 100, 100, 100, 0, 0, 1],
        [29, 30, 0.317, 0.161, 0.00, 100, 100, 100, 0, 0, 1],
        [30, 31, 0.608, 0.601, 0.00, 100, 100, 100, 0, 0, 1],
        [31, 32, 0.194, 0.226, 0.00, 100, 100, 100, 0, 0, 1],
        [31, 15, 1.248, 1.248, 0.00, 100, 100, 100, 0, 0, 1], # Esta es la línea clave que conecta todo
        [32, 33, 0.213, 0.331, 0.00, 100, 100, 100, 0, 0, 1],
    ], dtype=np.float64)

    return ppc